powerfulcases/cases/matpower/case6515rte/case6515rte.raw
0, 100, 33, 0, 0, 60  / 28-Jan-2026 21:53:07 - MATPOWER 8.1


     1, 'BUS 1       ',        45, 1,    1,    1, 1, 0.992673125, -12.8471377,    1, 0.888889,    1, 0.888889
     2, 'BUS 2       ',        63, 1,    1,    1, 1,  1.02546105, -9.79090947, 1.06349, 0.936508, 1.06349, 0.936508
     3, 'BUS 3       ',        63, 1,    1,    1, 1,  1.00864353, -17.1895145, 1.07937, 0.952381, 1.07937, 0.952381
     4, 'BUS 4       ',        90, 1,    1,    1, 1,  1.02422997,  -30.343276, 1.08889, 0.933333, 1.08889, 0.933333
     5, 'BUS 5       ',        63, 1,    1,    1, 1,  1.00903343, -61.8409771, 1.06349, 0.952381, 1.06349, 0.952381
     6, 'BUS 6       ',        63, 1,    1,    1, 1,  1.03039688, -21.8739211, 1.07937, 0.920635, 1.07937, 0.920635
     7, 'BUS 7       ',        63, 1,    1,    1, 1,  1.04823977, -23.3329536, 1.07937, 0.920635, 1.07937, 0.920635
     8, 'BUS 8       ',       225, 1,    1,    1, 1,  1.04175444,  -22.659297, 1.08889, 0.888889, 1.08889, 0.888889
     9, 'BUS 9       ',        63, 1,    1,    1, 1,  1.04155579, -20.2679216, 1.06349, 0.936508, 1.06349, 0.936508
    10, 'BUS 10      ',        90, 1,    1,    1, 1,   1.0132689, -29.1463296, 1.07778, 0.922222, 1.07778, 0.922222
    11, 'BUS 11      ',        90, 1,    1,    1, 1,  1.01326868, -29.1463272, 1.07778, 0.922222, 1.07778, 0.922222
    12, 'BUS 12      ',        63, 1,    1,    1, 1,  1.01492907, -3.69736777, 1.07937, 0.952381, 1.07937, 0.952381
    13, 'BUS 13      ',       380, 1,    1,    1, 1,  1.06112977, -5.52856096, 1.10263, 1.05271, 1.10263, 1.05271
    14, 'BUS 14      ',        90, 1,    1,    1, 1,  1.05559114, -38.6865005, 1.07778, 0.977778, 1.07778, 0.977778
    15, 'BUS 15      ',        63, 1,    1,    1, 1,  1.02066892, -25.2263375, 1.07937, 0.920635, 1.07937, 0.920635
    16, 'BUS 16      ',        63, 1,    1,    1, 1,  1.03089962, -28.9019546, 1.07937, 0.920635, 1.07937, 0.920635
    17, 'BUS 17      ',        90, 1,    1,    1, 1,  1.04190862, -35.5001147, 1.06667, 0.977778, 1.06667, 0.977778
    18, 'BUS 18      ',        45, 1,    1,    1, 1, 0.938816943, -6.53938592,    1, 0.888889,    1, 0.888889
    19, 'BUS 19      ',        63, 1,    1,    1, 1,  1.01915832, -24.0844174, 1.06349, 0.936508, 1.06349, 0.936508
    20, 'BUS 20      ',        45, 1,    1,    1, 1, 0.939550393,  -6.5786432,    1, 0.888889,    1, 0.888889
    21, 'BUS 21      ',        90, 1,    1,    1, 1,  1.02352369, -23.3128349, 1.06667, 0.977778, 1.06667, 0.977778
    22, 'BUS 22      ',        63, 1,    1,    1, 1,  1.00657527,  -18.245777, 1.07937, 0.952381, 1.07937, 0.952381
    23, 'BUS 23      ',        63, 1,    1,    1, 1,  1.01974649, -11.4972658, 1.06349, 0.936508, 1.06349, 0.936508
    24, 'BUS 24      ',        90, 1,    1,    1, 1,  1.02620358, -28.8977254, 1.11111, 0.955556, 1.11111, 0.955556
    25, 'BUS 25      ',        90, 1,    1,    1, 1,  1.06210876, -24.9347957,  1.1, 0.944444,  1.1, 0.944444
    26, 'BUS 26      ',        90, 1,    1,    1, 1,  1.01923142, -30.5619937, 1.06667, 0.977778, 1.06667, 0.977778
    27, 'BUS 27      ',       225, 1,    1,    1, 1,  1.05630842, -25.6901089, 1.08444, 1.00444, 1.08444, 1.00444
    28, 'BUS 28      ',        63, 1,    1,    1, 1,  1.01919759, -24.3820624, 1.07937, 0.952381, 1.07937, 0.952381
    29, 'BUS 29      ',        63, 1,    1,    1, 1, 0.992476874,  -26.274171, 1.06349, 0.968254, 1.06349, 0.968254
    30, 'BUS 30      ',        90, 1,    1,    1, 1,  1.01607663, -29.4588142, 1.08889, 0.933333, 1.08889, 0.933333
    31, 'BUS 31      ',        63, 1,    1,    1, 1,  1.04325949, -10.3722447, 1.06349, 0.936508, 1.06349, 0.936508
    32, 'BUS 32      ',       150, 1,    1,    1, 1,   1.0482513, -5.17611119, 1.10667,  0.9, 1.10667,  0.9
    33, 'BUS 33      ',       225, 1,    1,    1, 1,  1.05862347, -7.53647866, 1.08889, 0.933333, 1.08889, 0.933333
    34, 'BUS 34      ',       225, 1,    1,    1, 1,  1.05568981, -6.87832327, 1.08889, 0.933333, 1.08889, 0.933333
    35, 'BUS 35      ',       380, 1,    1,    1, 1,  1.07212104, -6.27267486, 1.10526, 1.03947, 1.10526, 1.03947
    36, 'BUS 36      ',       380, 1,    1,    1, 1,  1.07555328, -5.29121134, 1.10526, 1.03947, 1.10526, 1.03947
    37, 'BUS 37      ',        63, 1,    1,    1, 1,  1.01345584, -27.1537318, 1.07937, 0.920635, 1.07937, 0.920635
    38, 'BUS 38      ',        63, 1,    1,    1, 1,  1.02829838, -25.8684243, 1.09524, 0.936508, 1.09524, 0.936508
    39, 'BUS 39      ',        90, 1,    1,    1, 1,  1.01570693, -46.2156561, 1.07778, 0.977778, 1.07778, 0.977778
    40, 'BUS 40      ',        90, 1,    1,    1, 1,  1.04839394, -36.8261167, 1.07778, 0.977778, 1.07778, 0.977778
    41, 'BUS 41      ',       225, 1,    1,    1, 1,  1.05970737, -31.1653571, 1.08889, 1.00444, 1.08889, 1.00444
    42, 'BUS 42      ',        63, 1,    1,    1, 1,  1.12316346, 0.171268459, 1.13099, 0.952381, 1.13099, 0.952381
    43, 'BUS 43      ',        90, 1,    1,    1, 1,  1.03415253,  -33.026203, 1.07778, 0.977778, 1.07778, 0.977778
    44, 'BUS 44      ',        63, 1,    1,    1, 1,  1.02400777, -57.5229333, 1.06349, 0.952381, 1.06349, 0.952381
    45, 'BUS 45      ',        90, 1,    1,    1, 1,  1.01408884, -40.0298803, 1.06667, 0.977778, 1.06667, 0.977778
    46, 'BUS 46      ',        63, 1,    1,    1, 1,  1.02956066, -17.1027795, 1.06349, 0.936508, 1.06349, 0.936508
    47, 'BUS 47      ',        63, 2,    1,    1, 1,       1.022,  -13.006679, 1.06349, 0.936508, 1.06349, 0.936508
    48, 'BUS 48      ',        90, 1,    1,    1, 1,  1.01540389, -30.4810602, 1.07778, 0.922222, 1.07778, 0.922222
    49, 'BUS 49      ',        63, 1,    1,    1, 1,   1.0241398, -18.4598697, 1.06349, 0.936508, 1.06349, 0.936508
    50, 'BUS 50      ',        63, 1,    1,    1, 1,  1.06676716, -15.8911637, 1.06927, 0.936508, 1.06927, 0.936508
    51, 'BUS 51      ',       225, 1,    1,    1, 1,  1.05441957,  -10.919134, 1.08889, 0.933333, 1.08889, 0.933333
    52, 'BUS 52      ',        90, 1,    1,    1, 1,  1.02819015, -42.0616957, 1.06667, 0.977778, 1.06667, 0.977778
    53, 'BUS 53      ',        63, 1,    1,    1, 1, 0.990894456, -33.1970632, 1.04762, 0.952381, 1.04762, 0.952381
    54, 'BUS 54      ',        90, 1,    1,    1, 1,  1.03197366, -22.2968493, 1.06667, 0.977778, 1.06667, 0.977778
    55, 'BUS 55      ',       225, 1,    1,    1, 1,  1.06700842, -34.6141552, 1.08889, 1.00444, 1.08889, 1.00444
    56, 'BUS 56      ',       225, 1,    1,    1, 1,  1.05516756, -29.8601461, 1.08889, 1.00444, 1.08889, 1.00444
    57, 'BUS 57      ',        63, 2,    1,    1, 1,       1.058, -20.1693954, 1.07937, 0.920635, 1.07937, 0.920635
    58, 'BUS 58      ',       225, 1,    1,    1, 1,  1.06686281, -34.6314288, 1.08889, 1.00444, 1.08889, 1.00444
    59, 'BUS 59      ',        63, 1,    1,    1, 1,  1.02827769, -15.3855852, 1.07937, 0.952381, 1.07937, 0.952381
    60, 'BUS 60      ',        63, 1,    1,    1, 1,   1.0337691,  -9.9719196, 1.07937, 0.952381, 1.07937, 0.952381
    61, 'BUS 61      ',        63, 1,    1,    1, 1,  1.03489853, -11.5603392, 1.07937, 0.952381, 1.07937, 0.952381
    62, 'BUS 62      ',        63, 1,    1,    1, 1,  1.02055977, -9.93967295, 1.07937, 0.952381, 1.07937, 0.952381
    63, 'BUS 63      ',        63, 1,    1,    1, 1,   1.0112534, -4.26584306, 1.07937, 0.952381, 1.07937, 0.952381
    64, 'BUS 64      ',       225, 1,    1,    1, 1,  1.05467311, -22.3706653, 1.08889, 0.888889, 1.08889, 0.888889
    65, 'BUS 65      ',        63, 1,    1,    1, 1,  1.04688113, -12.1924535, 1.07937, 0.952381, 1.07937, 0.952381
    66, 'BUS 66      ',        63, 1,    1,    1, 1,  1.02707223, -27.7656942, 1.06349, 0.936508, 1.06349, 0.936508
    67, 'BUS 67      ',        63, 1,    1,    1, 1,  1.03945348, -23.5570146, 1.07937, 0.920635, 1.07937, 0.920635
    68, 'BUS 68      ',        63, 1,    1,    1, 1,  1.01382383,  -17.068817, 1.06349, 0.936508, 1.06349, 0.936508
    69, 'BUS 69      ',        63, 1,    1,    1, 1,  1.04182792, -62.4588387, 1.06349, 0.952381, 1.06349, 0.952381
    70, 'BUS 70      ',        63, 1,    1,    1, 1,  1.02517777, -2.58318588, 1.07937, 0.952381, 1.07937, 0.952381
    71, 'BUS 71      ',        63, 1,    1,    1, 1,  1.00979621, -33.3578345, 1.04762, 0.952381, 1.04762, 0.952381
    72, 'BUS 72      ',       225, 1,    1,    1, 1,  1.07727637, -26.6245331, 1.08889, 1.00444, 1.08889, 1.00444
    73, 'BUS 73      ',       225, 1,    1,    1, 1,  1.07728775, -26.6238384, 1.08889, 1.00444, 1.08889, 1.00444
    74, 'BUS 74      ',       225, 1,    1,    1, 1,  1.05521642, -22.2096659, 1.08889, 0.888889, 1.08889, 0.888889
    75, 'BUS 75      ',        90, 1,    1,    1, 1,  1.03831803, -25.8993445, 1.06667, 0.977778, 1.06667, 0.977778
    76, 'BUS 76      ',       225, 1,    1,    1, 1,  1.07673551, -0.737800075, 1.08889, 0.986667, 1.08889, 0.986667
    77, 'BUS 77      ',        63, 1,    1,    1, 1,  1.01539346, -18.6809907, 1.06349, 0.936508, 1.06349, 0.936508
    78, 'BUS 78      ',        63, 1,    1,    1, 1,  1.03810449, -26.0425496, 1.07937, 0.920635, 1.07937, 0.920635
    79, 'BUS 79      ',        63, 1,    1,    1, 1,  1.00480897, -32.1704872, 1.04762, 0.952381, 1.04762, 0.952381
    80, 'BUS 80      ',       225, 1,    1,    1, 1,  1.03513924, -31.7118517, 1.08889, 1.00444, 1.08889, 1.00444
    81, 'BUS 81      ',       225, 1,    1,    1, 1,  1.03515795, -31.7118034, 1.08889, 1.00444, 1.08889, 1.00444
    82, 'BUS 82      ',        63, 1,    1,    1, 1,  1.02513848, -19.7466558, 1.06349, 0.936508, 1.06349, 0.936508
    83, 'BUS 83      ',       225, 1,    1,    1, 1,  1.04529914, -32.2878169, 1.08889, 1.00444, 1.08889, 1.00444
    84, 'BUS 84      ',        63, 1,    1,    1, 1,  1.01622729, -14.3105965, 1.06349, 0.936508, 1.06349, 0.936508
    85, 'BUS 85      ',        63, 1,    1,    1, 1,  1.04080844, -18.1005924, 1.06349, 0.936508, 1.06349, 0.936508
    86, 'BUS 86      ',        90, 1,    1,    1, 1,  1.01614449, -49.9270109, 1.06667, 0.977778, 1.06667, 0.977778
    87, 'BUS 87      ',        63, 1,    1,    1, 1,  1.02330517, -4.28707361, 1.07937, 0.952381, 1.07937, 0.952381
    88, 'BUS 88      ',        63, 1,    1,    1, 1,  1.03614098, -22.0451103, 1.06349, 0.936508, 1.06349, 0.936508
    89, 'BUS 89      ',        90, 1,    1,    1, 1,  1.02844336, -35.7613286, 1.07778, 0.977778, 1.07778, 0.977778
    90, 'BUS 90      ',        45, 1,    1,    1, 1, 0.942964456, -7.25414887,    1, 0.888889,    1, 0.888889
    91, 'BUS 91      ',        45, 1,    1,    1, 1, 0.938816943, -6.53938592,    1, 0.888889,    1, 0.888889
    92, 'BUS 92      ',        63, 1,    1,    1, 1,  1.00914587, -21.2607832, 1.06349, 0.968254, 1.06349, 0.968254
    93, 'BUS 93      ',        45, 1,    1,    1, 1, 0.954341202, -8.94487733,    1, 0.888889,    1, 0.888889
    94, 'BUS 94      ',        90, 1,    1,    1, 1,   1.0348292, -29.3342649, 1.06667, 0.977778, 1.06667, 0.977778
    95, 'BUS 95      ',        90, 1,    1,    1, 1,  1.02330918, -41.8968451, 1.06667, 0.977778, 1.06667, 0.977778
    96, 'BUS 96      ',        63, 1,    1,    1, 1,  1.05013888, -10.4724751, 1.06349, 0.936508, 1.06349, 0.936508
    97, 'BUS 97      ',        63, 1,    1,    1, 1,   1.0637675, -23.1503147, 1.07937, 0.920635, 1.07937, 0.920635
    98, 'BUS 98      ',        63, 1,    1,    1, 1,  1.01837903, -23.6016005, 1.07937, 0.952381, 1.07937, 0.952381
    99, 'BUS 99      ',        63, 1,    1,    1, 1,  1.04200009, -11.2421339, 1.07937, 0.952381, 1.07937, 0.952381
   100, 'BUS 100     ',        63, 1,    1,    1, 1,   1.0198988, -16.7237189, 1.06349, 0.936508, 1.06349, 0.936508
   101, 'BUS 101     ',        63, 1,    1,    1, 1,  1.00720077, -15.4022054, 1.06349, 0.936508, 1.06349, 0.936508
   102, 'BUS 102     ',        63, 2,    1,    1, 1,       1.033, -17.5428369, 1.07937, 0.952381, 1.07937, 0.952381
   103, 'BUS 103     ',        63, 1,    1,    1, 1,  1.03402232, -10.2412822, 1.07937, 0.952381, 1.07937, 0.952381
   104, 'BUS 104     ',       225, 1,    1,    1, 1,  1.06896149, -7.24533817, 1.08889, 0.986667, 1.08889, 0.986667
   105, 'BUS 105     ',       225, 1,    1,    1, 1,  1.03585863, -20.6678397, 1.08889, 0.888889, 1.08889, 0.888889
   106, 'BUS 106     ',        90, 1,    1,    1, 1,  1.04519922,  -25.684212,  1.1, 0.944444,  1.1, 0.944444
   107, 'BUS 107     ',       225, 1,    1,    1, 1,    1.040509, -31.5107115, 1.08444, 1.00889, 1.08444, 1.00889
   108, 'BUS 108     ',        90, 1,    1,    1, 1,  1.04638166, -31.1343278, 1.07778, 0.977778, 1.07778, 0.977778
   109, 'BUS 109     ',        63, 1,    1,    1, 1,  1.03905102, -13.9671499, 1.06349, 0.936508, 1.06349, 0.936508
   110, 'BUS 110     ',       225, 1,    1,    1, 1,  1.02643332, -9.99598604, 1.08889, 0.933333, 1.08889, 0.933333
   111, 'BUS 111     ',        63, 1,    1,    1, 1, 0.999939733, -23.8557541, 1.06349, 0.968254, 1.06349, 0.968254
   112, 'BUS 112     ',        63, 1,    1,    1, 1,   1.0084672, -32.7244461, 1.04762, 0.952381, 1.04762, 0.952381
   113, 'BUS 113     ',       225, 1,    1,    1, 1,  1.04193595, -29.0769585, 1.08889, 1.00444, 1.08889, 1.00444
   114, 'BUS 114     ',        63, 1,    1,    1, 1,  1.05164361, -14.0192231, 1.06349, 0.936508, 1.06349, 0.936508
   115, 'BUS 115     ',       380, 1,    1,    1, 1,  1.06113897, -5.52864435, 1.10526, 1.05263, 1.10526, 1.05263
   116, 'BUS 116     ',       380, 1,    1,    1, 1,  1.06113897, -5.52864435, 1.10526, 1.05263, 1.10526, 1.05263
   117, 'BUS 117     ',        63, 1,    1,    1, 1,   1.0148958, -22.0594793, 1.07937, 0.952381, 1.07937, 0.952381
   118, 'BUS 118     ',        90, 1,    1,    1, 1,   1.0407153, -25.5846169, 1.06667, 0.977778, 1.06667, 0.977778
   119, 'BUS 119     ',        63, 1,    1,    1, 1,  1.00751513, -12.2929818, 1.06349, 0.936508, 1.06349, 0.936508
   120, 'BUS 120     ',        63, 1,    1,    1, 1,  1.02701829, -10.6746379, 1.06349, 0.936508, 1.06349, 0.936508
   121, 'BUS 121     ',        63, 1,    1,    1, 1,  1.01905698, -28.4357141, 1.07937, 0.920635, 1.07937, 0.920635
   122, 'BUS 122     ',        63, 2,    1,    1, 1,       1.026, -11.4893332, 1.07937, 0.952381, 1.07937, 0.952381
   123, 'BUS 123     ',        63, 1,    1,    1, 1,  1.02345495, -11.6208216, 1.07937, 0.952381, 1.07937, 0.952381
   124, 'BUS 124     ',        90, 1,    1,    1, 1,  1.03058281, -32.0456097, 1.06667, 0.977778, 1.06667, 0.977778
   125, 'BUS 125     ',        63, 1,    1,    1, 1,  1.02451482, -17.6128119, 1.07937, 0.952381, 1.07937, 0.952381
   126, 'BUS 126     ',        63, 1,    1,    1, 1,  1.04200581, -18.1711791, 1.06349, 0.936508, 1.06349, 0.936508
   127, 'BUS 127     ',        63, 1,    1,    1, 1,  1.00893682, -34.7845994, 1.04762, 0.952381, 1.04762, 0.952381
   128, 'BUS 128     ',        63, 1,    1,    1, 1,  1.02420693, -13.4505926, 1.06349, 0.968254, 1.06349, 0.968254
   129, 'BUS 129     ',        63, 1,    1,    1, 1,  1.02228026,  -11.684565, 1.06349, 0.968254, 1.06349, 0.968254
   130, 'BUS 130     ',       225, 1,    1,    1, 1,  1.04938638, -10.7559484, 1.08444, 1.00889, 1.08444, 1.00889
   131, 'BUS 131     ',       225, 1,    1,    1, 1,  1.04797649, -19.2970195, 1.08444, 1.00889, 1.08444, 1.00889
   132, 'BUS 132     ',        90, 2,    1,    1, 1,       1.061, -17.4067202, 1.07778, 0.922222, 1.07778, 0.922222
   133, 'BUS 133     ',        63, 1,    1,    1, 1, 0.977015678, -35.7038784, 1.04762, 0.952381, 1.04762, 0.952381
   134, 'BUS 134     ',       225, 1,    1,    1, 1,  1.01919465, -32.3675851, 1.08889, 1.00444, 1.08889, 1.00444
   135, 'BUS 135     ',       225, 1,    1,    1, 1,  1.06787852, -34.4372217, 1.08889, 1.00444, 1.08889, 1.00444
   136, 'BUS 136     ',        90, 1,    1,    1, 1,  1.02860167, -45.1625315, 1.07778, 0.977778, 1.07778, 0.977778
   137, 'BUS 137     ',        63, 2,    1,    1, 1,       1.021, -13.7741519, 1.06349, 0.968254, 1.06349, 0.968254
   138, 'BUS 138     ',       150, 1,    1,    1, 1,  1.05230738, -11.8528375, 1.08, 0.966667, 1.08, 0.966667
   139, 'BUS 139     ',        63, 1,    1,    1, 1,  1.04648958, -14.9227418, 1.07937, 0.920635, 1.07937, 0.920635
   140, 'BUS 140     ',       225, 1,    1,    1, 1,  1.07646104, -11.6950122, 1.08889,    1, 1.08889,    1
   141, 'BUS 141     ',       380, 1,    1,    1, 1,  1.08763346, -8.32866303, 1.10526, 1.05263, 1.10526, 1.05263
   142, 'BUS 142     ',        63, 1,    1,    1, 1,  1.03228893, -14.8981507, 1.07937, 0.952381, 1.07937, 0.952381
   143, 'BUS 143     ',       225, 1,    1,    1, 1,  1.06313802, -9.96969754, 1.08889, 0.986667, 1.08889, 0.986667
   144, 'BUS 144     ',        90, 1,    1,    1, 1,  1.03309181, -26.8698953, 1.11111, 0.955556, 1.11111, 0.955556
   145, 'BUS 145     ',       225, 1,    1,    1, 1,  1.05635444, -22.0953535, 1.08889, 0.968889, 1.08889, 0.968889
   146, 'BUS 146     ',       380, 1,    1,    1, 1,  1.07128281, -18.8795632, 1.10526,    1, 1.10526,    1
   147, 'BUS 147     ',        63, 1,    1,    1, 1,  1.04390759, -16.0736886, 1.06349, 0.936508, 1.06349, 0.936508
   148, 'BUS 148     ',        63, 1,    1,    1, 1,  1.03749817, -13.2119304, 1.06349, 0.936508, 1.06349, 0.936508
   149, 'BUS 149     ',        90, 1,    1,    1, 1,  1.03408373, -41.2236007, 1.06667, 0.977778, 1.06667, 0.977778
   150, 'BUS 150     ',        63, 1,    1,    1, 1,  1.04112536, -10.8602978, 1.06349, 0.936508, 1.06349, 0.936508
   151, 'BUS 151     ',        63, 1,    1,    1, 1,  0.98098642, -26.9365676, 1.06349, 0.968254, 1.06349, 0.968254
   152, 'BUS 152     ',        63, 1,    1,    1, 1, 0.980839029, -25.6821086, 1.06349, 0.968254, 1.06349, 0.968254
   153, 'BUS 153     ',        63, 1,    1,    1, 1,  1.04181234, -13.2314985, 1.06349, 0.936508, 1.06349, 0.936508
   154, 'BUS 154     ',       225, 1,    1,    1, 1,  1.06674466, -9.80672971, 1.08889, 0.933333, 1.08889, 0.933333
   155, 'BUS 155     ',        63, 2,    1,    1, 1,  1.03406286, -20.2221707, 1.07937, 0.920635, 1.07937, 0.920635
   156, 'BUS 156     ',        63, 1,    1,    1, 1, 0.980935792, -26.9415225, 1.06349, 0.968254, 1.06349, 0.968254
   157, 'BUS 157     ',        45, 1,    1,    1, 1, 0.935542823, -10.5371068,    1, 0.888889,    1, 0.888889
   158, 'BUS 158     ',        45, 2,    1,    1, 1,       0.959,  -8.8219929,    1, 0.888889,    1, 0.888889
   159, 'BUS 159     ',        63, 1,    1,    1, 1,  1.03725797, -13.4653506, 1.06349, 0.936508, 1.06349, 0.936508
   160, 'BUS 160     ',       225, 1,    1,    1, 1,  1.04467103, -19.1138119, 1.08889, 0.888889, 1.08889, 0.888889
   161, 'BUS 161     ',       225, 1,    1,    1, 1,  1.04448642, -19.1176995, 1.08889, 0.888889, 1.08889, 0.888889
   162, 'BUS 162     ',        90, 1,    1,    1, 1,  1.01339884, -30.3158034, 1.06667, 0.977778, 1.06667, 0.977778
   163, 'BUS 163     ',        63, 1,    1,    1, 1,  1.02801672, -10.7250105, 1.07937, 0.952381, 1.07937, 0.952381
   164, 'BUS 164     ',        63, 1,    1,    1, 1,  1.02801672, -10.7250105, 1.07937, 0.952381, 1.07937, 0.952381
   165, 'BUS 165     ',        20, 1,    1,    1, 1,  1.05983201,  -36.314939, 1.15,  0.8, 1.15,  0.8
   166, 'BUS 166     ',        90, 1,    1,    1, 1,  1.03524133, -40.7823374, 1.06667, 0.977778, 1.06667, 0.977778
   167, 'BUS 167     ',        90, 1,    1,    1, 1,  1.02999342, -41.2456122, 1.06667, 0.977778, 1.06667, 0.977778
   168, 'BUS 168     ',       225, 1,    1,    1, 1,  1.05995948, -36.3084919, 1.08444, 1.00444, 1.08444, 1.00444
   169, 'BUS 169     ',        90, 1,    1,    1, 1,  1.01990731, -34.6512734, 1.06667, 0.977778, 1.06667, 0.977778
   170, 'BUS 170     ',        90, 1,    1,    1, 1,  1.02344208, -35.0733645, 1.07778, 0.977778, 1.07778, 0.977778
   171, 'BUS 171     ',        90, 1,    1,    1, 1,  1.04082815, -39.1279989, 1.07778, 0.977778, 1.07778, 0.977778
   172, 'BUS 172     ',       225, 1,    1,    1, 1,  1.04692773, -34.5246347, 1.08889, 1.00444, 1.08889, 1.00444
   173, 'BUS 173     ',        90, 1,    1,    1, 1,   1.0590281,  -23.829887, 1.08889, 0.933333, 1.08889, 0.933333
   174, 'BUS 174     ',        90, 1,    1,    1, 1,  1.05612022, -26.5540592, 1.11111, 0.955556, 1.11111, 0.955556
   175, 'BUS 175     ',        63, 1,    1,    1, 1,  1.03904928,  -18.731462, 1.07937, 0.920635, 1.07937, 0.920635
   176, 'BUS 176     ',       150, 2,    1,    1, 1,   1.0990839, -16.9543598,  1.1,  0.9,  1.1,  0.9
   177, 'BUS 177     ',       225, 1,    1,    1, 1,  1.06242189, -31.0018642, 1.08889, 1.00444, 1.08889, 1.00444
   178, 'BUS 178     ',       225, 1,    1,    1, 1,  1.06242211, -31.0018654, 1.08889, 1.00444, 1.08889, 1.00444
   179, 'BUS 179     ',        63, 1,    1,    1, 1,  1.00913769, -34.7703996, 1.04762, 0.952381, 1.04762, 0.952381
   180, 'BUS 180     ',       225, 1,    1,    1, 1,  1.06242061, -31.0018573, 1.08889, 1.00444, 1.08889, 1.00444
   181, 'BUS 181     ',        63, 1,    1,    1, 1,  1.05536442, -25.4715017, 1.07937, 0.920635, 1.07937, 0.920635
   182, 'BUS 182     ',        63, 1,    1,    1, 1,  1.03881229,   -11.07428, 1.06349, 0.936508, 1.06349, 0.936508
   183, 'BUS 183     ',        63, 1,    1,    1, 1,  1.02470235, -22.7861282, 1.07937, 0.952381, 1.07937, 0.952381
   184, 'BUS 184     ',        90, 1,    1,    1, 1,  1.06245644, -33.1058103, 1.07778, 0.977778, 1.07778, 0.977778
   185, 'BUS 185     ',        63, 1,    1,    1, 1,  1.02299848, -15.8326102, 1.07937, 0.952381, 1.07937, 0.952381
   186, 'BUS 186     ',        90, 1,    1,    1, 1,  1.02336193, -28.6617357, 1.06667, 0.977778, 1.06667, 0.977778
   187, 'BUS 187     ',        63, 2,    1,    1, 1,  1.05073012, -20.5024991, 1.07937, 0.920635, 1.07937, 0.920635
   188, 'BUS 188     ',        63, 1,    1,    1, 1,  1.09874151, -19.0660354, 1.09875, 0.920635, 1.09875, 0.920635
   189, 'BUS 189     ',        63, 1,    1,    1, 1,   1.0371871, -24.0139136, 1.07937, 0.920635, 1.07937, 0.920635
   190, 'BUS 190     ',        45, 2,    1,    1, 1, 0.952733602, -8.26372461,    1, 0.888889,    1, 0.888889
   191, 'BUS 191     ',        90, 1,    1,    1, 1,  1.02020663, -34.5833907, 1.06667, 0.977778, 1.06667, 0.977778
   192, 'BUS 192     ',        63, 1,    1,    1, 1,  1.05772429, -20.6421751, 1.07937, 0.920635, 1.07937, 0.920635
   193, 'BUS 193     ',       225, 1,    1,    1, 1,  1.04211754, -29.6167516, 1.08889, 1.00444, 1.08889, 1.00444
   194, 'BUS 194     ',        63, 2,    1,    1, 1,       1.056, -24.8084248, 1.07937, 0.920635, 1.07937, 0.920635
   195, 'BUS 195     ',        63, 1,    1,    1, 1,   1.0450331, -32.4605615, 1.06362, 0.952381, 1.06362, 0.952381
   196, 'BUS 196     ',        63, 1,    1,    1, 1,  1.04503452,  -32.460604, 1.06362, 0.952381, 1.06362, 0.952381
   197, 'BUS 197     ',        63, 1,    1,    1, 1,   1.0141897, -32.2451924, 1.07937, 0.920635, 1.07937, 0.920635
   198, 'BUS 198     ',        63, 1,    1,    1, 1,  1.02001475, -23.0392125, 1.07937, 0.920635, 1.07937, 0.920635
   199, 'BUS 199     ',        90, 1,    1,    1, 1,  1.01797065, -48.3616102, 1.06667, 0.977778, 1.06667, 0.977778
   200, 'BUS 200     ',       225, 1,    1,    1, 1,  1.08350695,  -23.092176, 1.08889,    1, 1.08889,    1
...
0 / END OF BUS DATA, BEGIN LOAD DATA
     3,  1, 1,    1,    1,      14.8,       3.8, 0, 0, 0, 0, 1, 1, 0
     4,  1, 1,    1,    1,      49.6,       2.8, 0, 0, 0, 0, 1, 1, 0
     5,  1, 1,    1,    1,      12.9,       0.9, 0, 0, 0, 0, 1, 1, 0
     6,  1, 1,    1,    1,        13,       5.3, 0, 0, 0, 0, 1, 1, 0
     7,  1, 1,    1,    1,       2.3,       0.2, 0, 0, 0, 0, 1, 1, 0
     8,  1, 1,    1,    1,      15.8,      -0.3, 0, 0, 0, 0, 1, 1, 0
     9,  1, 1,    1,    1,      14.9,         0, 0, 0, 0, 0, 1, 1, 0
    11,  1, 1,    1,    1,      33.2,       4.9, 0, 0, 0, 0, 1, 1, 0
    14,  1, 1,    1,    1,      63.2,      13.3, 0, 0, 0, 0, 1, 1, 0
    16,  1, 1,    1,    1,      13.9,       1.9, 0, 0, 0, 0, 1, 1, 0
    17,  1, 1,    1,    1,      10.9,       0.1, 0, 0, 0, 0, 1, 1, 0
    19,  1, 1,    1,    1,         1,         0, 0, 0, 0, 0, 1, 1, 0
    20,  1, 1,    1,    1,       5.6,       -18, 0, 0, 0, 0, 1, 1, 0
    21,  1, 1,    1,    1,       7.6,      -1.6, 0, 0, 0, 0, 1, 1, 0
    22,  1, 1,    1,    1,      18.5,         1, 0, 0, 0, 0, 1, 1, 0
    23,  1, 1,    1,    1,      22.4,       2.2, 0, 0, 0, 0, 1, 1, 0
    24,  1, 1,    1,    1,        17,      -1.5, 0, 0, 0, 0, 1, 1, 0
    25,  1, 1,    1,    1,      54.7,      -1.1, 0, 0, 0, 0, 1, 1, 0
    26,  1, 1,    1,    1,      15.1,      10.6, 0, 0, 0, 0, 1, 1, 0
    28,  1, 1,    1,    1,       0.9,      -0.2, 0, 0, 0, 0, 1, 1, 0
    29,  1, 1,    1,    1,      76.5,       9.4, 0, 0, 0, 0, 1, 1, 0
    30,  1, 1,    1,    1,      39.9,       3.5, 0, 0, 0, 0, 1, 1, 0
    37,  1, 1,    1,    1,      -2.7,         3, 0, 0, 0, 0, 1, 1, 0
    38,  1, 1,    1,    1,         5,        -1, 0, 0, 0, 0, 1, 1, 0
    39,  1, 1,    1,    1,      43.6,      -2.9, 0, 0, 0, 0, 1, 1, 0
    40,  1, 1,    1,    1,      38.1,       4.1, 0, 0, 0, 0, 1, 1, 0
    43,  1, 1,    1,    1,       3.2,       2.7, 0, 0, 0, 0, 1, 1, 0
    44,  1, 1,    1,    1,      13.3,       0.1, 0, 0, 0, 0, 1, 1, 0
    45,  1, 1,    1,    1,       3.8,       1.6, 0, 0, 0, 0, 1, 1, 0
    48,  1, 1,    1,    1,      40.4,       5.6, 0, 0, 0, 0, 1, 1, 0
    49,  1, 1,    1,    1,       9.8,      -1.9, 0, 0, 0, 0, 1, 1, 0
    52,  1, 1,    1,    1,       6.5,       2.9, 0, 0, 0, 0, 1, 1, 0
    54,  1, 1,    1,    1,       0.3,      -0.3, 0, 0, 0, 0, 1, 1, 0
    55,  1, 1,    1,    1,      50.9,      12.3, 0, 0, 0, 0, 1, 1, 0
    56,  1, 1,    1,    1,      75.5,      20.5, 0, 0, 0, 0, 1, 1, 0
    58,  1, 1,    1,    1,       154,      36.4, 0, 0, 0, 0, 1, 1, 0
    59,  1, 1,    1,    1,         5,         1, 0, 0, 0, 0, 1, 1, 0
    61,  1, 1,    1,    1,      46.3,      11.9, 0, 0, 0, 0, 1, 1, 0
    63,  1, 1,    1,    1,      16.8,       2.9, 0, 0, 0, 0, 1, 1, 0
    64,  1, 1,    1,    1,      67.3,       7.1, 0, 0, 0, 0, 1, 1, 0
    65,  1, 1,    1,    1,        12,       2.8, 0, 0, 0, 0, 1, 1, 0
    66,  1, 1,    1,    1,        13,      -6.4, 0, 0, 0, 0, 1, 1, 0
    67,  1, 1,    1,    1,         1,         0, 0, 0, 0, 0, 1, 1, 0
    68,  1, 1,    1,    1,      53.1,       1.1, 0, 0, 0, 0, 1, 1, 0
    69,  1, 1,    1,    1,      20.8,       1.3, 0, 0, 0, 0, 1, 1, 0
    70,  1, 1,    1,    1,      10.6,       4.2, 0, 0, 0, 0, 1, 1, 0
    71,  1, 1,    1,    1,      69.4,      17.5, 0, 0, 0, 0, 1, 1, 0
    74,  1, 1,    1,    1,      58.8,        -5, 0, 0, 0, 0, 1, 1, 0
    75,  1, 1,    1,    1,      25.2,       1.9, 0, 0, 0, 0, 1, 1, 0
    76,  1, 1,    1,    1,       5.9,      -2.1, 0, 0, 0, 0, 1, 1, 0
    77,  1, 1,    1,    1,      43.7,       0.4, 0, 0, 0, 0, 1, 1, 0
    80,  1, 1,    1,    1,      32.4,      10.5, 0, 0, 0, 0, 1, 1, 0
    81,  1, 1,    1,    1,      32.4,       9.1, 0, 0, 0, 0, 1, 1, 0
    82,  1, 1,    1,    1,      11.3,       0.3, 0, 0, 0, 0, 1, 1, 0
    83,  1, 1,    1,    1,        79,      24.8, 0, 0, 0, 0, 1, 1, 0
    84,  1, 1,    1,    1,      -0.1,       0.4, 0, 0, 0, 0, 1, 1, 0
    85,  1, 1,    1,    1,       0.7,      -1.5, 0, 0, 0, 0, 1, 1, 0
    86,  1, 1,    1,    1,      48.8,       5.2, 0, 0, 0, 0, 1, 1, 0
    88,  1, 1,    1,    1,      14.8,      -1.2, 0, 0, 0, 0, 1, 1, 0
    89,  1, 1,    1,    1,      26.2,       0.3, 0, 0, 0, 0, 1, 1, 0
    90,  1, 1,    1,    1,       0.2,      -2.3, 0, 0, 0, 0, 1, 1, 0
    92,  1, 1,    1,    1,      31.8,       1.1, 0, 0, 0, 0, 1, 1, 0
    93,  1, 1,    1,    1,         2,      -2.8, 0, 0, 0, 0, 1, 1, 0
    94,  1, 1,    1,    1,      18.2,        -4, 0, 0, 0, 0, 1, 1, 0
    95,  1, 1,    1,    1,      57.2,       9.4, 0, 0, 0, 0, 1, 1, 0
    96,  1, 1,    1,    1,       0.9,      -0.2, 0, 0, 0, 0, 1, 1, 0
    97,  1, 1,    1,    1,      57.7,       3.8, 0, 0, 0, 0, 1, 1, 0
    98,  1, 1,    1,    1,       9.5,         1, 0, 0, 0, 0, 1, 1, 0
    99,  1, 1,    1,    1,      35.8,       5.9, 0, 0, 0, 0, 1, 1, 0
   100,  1, 1,    1,    1,        63,       7.8, 0, 0, 0, 0, 1, 1, 0
   101,  1, 1,    1,    1,      17.3,      -0.8, 0, 0, 0, 0, 1, 1, 0
   103,  1, 1,    1,    1,      12.6,      -1.2, 0, 0, 0, 0, 1, 1, 0
   105,  1, 1,    1,    1,      36.9,       2.2, 0, 0, 0, 0, 1, 1, 0
   106,  1, 1,    1,    1,      58.2,      10.7, 0, 0, 0, 0, 1, 1, 0
   107,  1, 1,    1,    1,       107,      14.3, 0, 0, 0, 0, 1, 1, 0
   108,  1, 1,    1,    1,      12.2,      -2.4, 0, 0, 0, 0, 1, 1, 0
   109,  1, 1,    1,    1,      67.8,       8.7, 0, 0, 0, 0, 1, 1, 0
   111,  1, 1,    1,    1,      38.7,      -7.5, 0, 0, 0, 0, 1, 1, 0
   114,  1, 1,    1,    1,      13.4,       1.1, 0, 0, 0, 0, 1, 1, 0
   117,  1, 1,    1,    1,      14.9,       0.2, 0, 0, 0, 0, 1, 1, 0
   118,  1, 1,    1,    1,         2,       0.7, 0, 0, 0, 0, 1, 1, 0
   119,  1, 1,    1,    1,      40.6,       6.9, 0, 0, 0, 0, 1, 1, 0
   120,  1, 1,    1,    1,        22,      -2.3, 0, 0, 0, 0, 1, 1, 0
   121,  1, 1,    1,    1,      20.8,       1.4, 0, 0, 0, 0, 1, 1, 0
   123,  1, 1,    1,    1,        12,       4.6, 0, 0, 0, 0, 1, 1, 0
   124,  1, 1,    1,    1,         8,      -0.4, 0, 0, 0, 0, 1, 1, 0
   125,  1, 1,    1,    1,      11.1,       0.4, 0, 0, 0, 0, 1, 1, 0
   126,  1, 1,    1,    1,       0.2,       0.8, 0, 0, 0, 0, 1, 1, 0
   127,  1, 1,    1,    1,      14.7,       2.7, 0, 0, 0, 0, 1, 1, 0
   128,  1, 1,    1,    1,      13.8,       7.2, 0, 0, 0, 0, 1, 1, 0
   129,  1, 1,    1,    1,      19.1,      10.8, 0, 0, 0, 0, 1, 1, 0
   131,  1, 1,    1,    1,     119.3,        12, 0, 0, 0, 0, 1, 1, 0
   132,  1, 1,    1,    1,       9.4,         0, 0, 0, 0, 0, 1, 1, 0
   133,  1, 1,    1,    1,       2.7,       0.4, 0, 0, 0, 0, 1, 1, 0
   134,  1, 1,    1,    1,     101.1,      27.4, 0, 0, 0, 0, 1, 1, 0
   136,  1, 1,    1,    1,      23.9,       1.4, 0, 0, 0, 0, 1, 1, 0
   137,  1, 1,    1,    1,       8.7,        -3, 0, 0, 0, 0, 1, 1, 0
   139,  1, 1,    1,    1,         8,       7.1, 0, 0, 0, 0, 1, 1, 0
   142,  1, 1,    1,    1,      22.4,       7.4, 0, 0, 0, 0, 1, 1, 0
   144,  1, 1,    1,    1,        16,         5, 0, 0, 0, 0, 1, 1, 0
   145,  1, 1,    1,    1,      23.4,         9, 0, 0, 0, 0, 1, 1, 0
   147,  1, 1,    1,    1,        30,       5.5, 0, 0, 0, 0, 1, 1, 0
   148,  1, 1,    1,    1,       6.6,       1.2, 0, 0, 0, 0, 1, 1, 0
   149,  1, 1,    1,    1,      16.9,       4.1, 0, 0, 0, 0, 1, 1, 0
   150,  1, 1,    1,    1,      48.5,       3.2, 0, 0, 0, 0, 1, 1, 0
   152,  1, 1,    1,    1,      45.3,        12, 0, 0, 0, 0, 1, 1, 0
   153,  1, 1,    1,    1,      27.3,      -5.5, 0, 0, 0, 0, 1, 1, 0
   160,  1, 1,    1,    1,      41.7,       5.9, 0, 0, 0, 0, 1, 1, 0
   161,  1, 1,    1,    1,      43.7,        10, 0, 0, 0, 0, 1, 1, 0
   162,  1, 1,    1,    1,      -0.3,      -1.6, 0, 0, 0, 0, 1, 1, 0
   165,  1, 1,    1,    1,      16.5,      14.6, 0, 0, 0, 0, 1, 1, 0
   166,  1, 1,    1,    1,      13.3,       3.2, 0, 0, 0, 0, 1, 1, 0
   167,  1, 1,    1,    1,      17.8,      -0.8, 0, 0, 0, 0, 1, 1, 0
   169,  1, 1,    1,    1,       9.9,      -0.9, 0, 0, 0, 0, 1, 1, 0
   170,  1, 1,    1,    1,      79.8,      13.5, 0, 0, 0, 0, 1, 1, 0
   171,  1, 1,    1,    1,        28,       0.8, 0, 0, 0, 0, 1, 1, 0
   173,  1, 1,    1,    1,      28.5,         8, 0, 0, 0, 0, 1, 1, 0
   174,  1, 1,    1,    1,      59.7,      11.6, 0, 0, 0, 0, 1, 1, 0
   181,  1, 1,    1,    1,      12.7,      -5.3, 0, 0, 0, 0, 1, 1, 0
   182,  1, 1,    1,    1,        16,       3.1, 0, 0, 0, 0, 1, 1, 0
   183,  1, 1,    1,    1,       5.5,      -1.7, 0, 0, 0, 0, 1, 1, 0
   184,  1, 1,    1,    1,         5,       1.4, 0, 0, 0, 0, 1, 1, 0
   185,  1, 1,    1,    1,      30.6,       2.7, 0, 0, 0, 0, 1, 1, 0
   186,  1, 1,    1,    1,       1.2,       0.2, 0, 0, 0, 0, 1, 1, 0
   189,  1, 1,    1,    1,      16.8,       1.8, 0, 0, 0, 0, 1, 1, 0
   191,  1, 1,    1,    1,      15.4,      -1.1, 0, 0, 0, 0, 1, 1, 0
   192,  1, 1,    1,    1,       9.9,        -0, 0, 0, 0, 0, 1, 1, 0
   193,  1, 1,    1,    1,       0.1,       0.7, 0, 0, 0, 0, 1, 1, 0
   194,  1, 1,    1,    1,       0.7,      -1.6, 0, 0, 0, 0, 1, 1, 0
   197,  1, 1,    1,    1,      27.5,      -0.6, 0, 0, 0, 0, 1, 1, 0
   198,  1, 1,    1,    1,      11.1,      -0.8, 0, 0, 0, 0, 1, 1, 0
   199,  1, 1,    1,    1,      12.6,       2.7, 0, 0, 0, 0, 1, 1, 0
   201,  1, 1,    1,    1,        81,      25.6, 0, 0, 0, 0, 1, 1, 0
   202,  1, 1,    1,    1,      49.8,         2, 0, 0, 0, 0, 1, 1, 0
   203,  1, 1,    1,    1,      28.6,       3.7, 0, 0, 0, 0, 1, 1, 0
   206,  1, 1,    1,    1,      54.4,       9.9, 0, 0, 0, 0, 1, 1, 0
   207,  1, 1,    1,    1,      33.9,       4.5, 0, 0, 0, 0, 1, 1, 0
   208,  1, 1,    1,    1,      16.6,      -0.8, 0, 0, 0, 0, 1, 1, 0
   209,  1, 1,    1,    1,       2.2,       1.1, 0, 0, 0, 0, 1, 1, 0
   210,  1, 1,    1,    1,      41.5,       6.3, 0, 0, 0, 0, 1, 1, 0
   211,  1, 1,    1,    1,      32.5,        14, 0, 0, 0, 0, 1, 1, 0
   214,  1, 1,    1,    1,      43.1,       4.5, 0, 0, 0, 0, 1, 1, 0
   216,  1, 1,    1,    1,      21.1,      -3.5, 0, 0, 0, 0, 1, 1, 0
   217,  1, 1,    1,    1,      31.1,       2.7, 0, 0, 0, 0, 1, 1, 0
   218,  1, 1,    1,    1,       3.3,      -0.4, 0, 0, 0, 0, 1, 1, 0
   219,  1, 1,    1,    1,      11.1,      -4.9, 0, 0, 0, 0, 1, 1, 0
   220,  1, 1,    1,    1,      14.8,       3.5, 0, 0, 0, 0, 1, 1, 0
   221,  1, 1,    1,    1,        13,      -6.8, 0, 0, 0, 0, 1, 1, 0
   223,  1, 1,    1,    1,      42.4,       2.2, 0, 0, 0, 0, 1, 1, 0
   225,  1, 1,    1,    1,      76.8,      16.6, 0, 0, 0, 0, 1, 1, 0
   226,  1, 1,    1,    1,      77.8,      71.5, 0, 0, 0, 0, 1, 1, 0
   227,  1, 1,    1,    1,         5,      -1.9, 0, 0, 0, 0, 1, 1, 0
   228,  1, 1,    1,    1,      10.9,        -2, 0, 0, 0, 0, 1, 1, 0
   229,  1, 1,    1,    1,        12,        -5, 0, 0, 0, 0, 1, 1, 0
   231,  1, 1,    1,    1,         7,      -1.4, 0, 0, 0, 0, 1, 1, 0
   232,  1, 1,    1,    1,       7.2,       0.1, 0, 0, 0, 0, 1, 1, 0
   234,  1, 1,    1,    1,      24.7,       8.1, 0, 0, 0, 0, 1, 1, 0
   235,  1, 1,    1,    1,      17.7,       3.3, 0, 0, 0, 0, 1, 1, 0
   236,  1, 1,    1,    1,      28.6,         1, 0, 0, 0, 0, 1, 1, 0
   237,  1, 1,    1,    1,      43.7,       5.2, 0, 0, 0, 0, 1, 1, 0
   238,  1, 1,    1,    1,      25.2,      -1.7, 0, 0, 0, 0, 1, 1, 0
   239,  1, 1,    1,    1,      53.9,       4.3, 0, 0, 0, 0, 1, 1, 0
   240,  1, 1,    1,    1,      51.1,       9.5, 0, 0, 0, 0, 1, 1, 0
   241,  1, 1,    1,    1,      56.7,       9.4, 0, 0, 0, 0, 1, 1, 0
   242,  1, 1,    1,    1,      56.2,       8.6, 0, 0, 0, 0, 1, 1, 0
   243,  1, 1,    1,    1,      26.7,      -2.3, 0, 0, 0, 0, 1, 1, 0
   244,  1, 1,    1,    1,        58,       3.7, 0, 0, 0, 0, 1, 1, 0
   245,  1, 1,    1,    1,      13.7,      -2.2, 0, 0, 0, 0, 1, 1, 0
   246,  1, 1,    1,    1,      13.7,       7.5, 0, 0, 0, 0, 1, 1, 0
   248,  1, 1,    1,    1,      33.4,      13.1, 0, 0, 0, 0, 1, 1, 0
   249,  1, 1,    1,    1,      26.1,       0.9, 0, 0, 0, 0, 1, 1, 0
   250,  1, 1,    1,    1,      27.4,      -9.4, 0, 0, 0, 0, 1, 1, 0
   251,  1, 1,    1,    1,      10.6,       3.5, 0, 0, 0, 0, 1, 1, 0
   252,  1, 1,    1,    1,       9.6,      -1.8, 0, 0, 0, 0, 1, 1, 0
   253,  1, 1,    1,    1,      54.1,       5.3, 0, 0, 0, 0, 1, 1, 0
   254,  1, 1,    1,    1,        20,       1.9, 0, 0, 0, 0, 1, 1, 0
   255,  1, 1,    1,    1,       9.5,      -0.2, 0, 0, 0, 0, 1, 1, 0
   256,  1, 1,    1,    1,       1.8,         0, 0, 0, 0, 0, 1, 1, 0
   259,  1, 1,    1,    1,        33,      -2.2, 0, 0, 0, 0, 1, 1, 0
   266,  1, 1,    1,    1,      32.5,       7.6, 0, 0, 0, 0, 1, 1, 0
   267,  1, 1,    1,    1,      66.3,      12.7, 0, 0, 0, 0, 1, 1, 0
   268,  1, 1,    1,    1,      12.2,      10.9, 0, 0, 0, 0, 1, 1, 0
   269,  1, 1,    1,    1,      23.2,       1.1, 0, 0, 0, 0, 1, 1, 0
   272,  1, 1,    1,    1,      45.8,       4.3, 0, 0, 0, 0, 1, 1, 0
   273,  1, 1,    1,    1,      28.5,       3.5, 0, 0, 0, 0, 1, 1, 0
   274,  1, 1,    1,    1,      54.5,       9.1, 0, 0, 0, 0, 1, 1, 0
   277,  1, 1,    1,    1,       3.7,       2.3, 0, 0, 0, 0, 1, 1, 0
   278,  1, 1,    1,    1,       1.5,       4.6, 0, 0, 0, 0, 1, 1, 0
   279,  1, 1,    1,    1,        11,      -2.1, 0, 0, 0, 0, 1, 1, 0
   280,  1, 1,    1,    1,        44,      14.3, 0, 0, 0, 0, 1, 1, 0
   281,  1, 1,    1,    1,      12.8,       0.9, 0, 0, 0, 0, 1, 1, 0
   283,  1, 1,    1,    1,      12.1,      -0.2, 0, 0, 0, 0, 1, 1, 0
   284,  1, 1,    1,    1,      16.8,       4.6, 0, 0, 0, 0, 1, 1, 0
   285,  1, 1,    1,    1,      -1.7,       4.6, 0, 0, 0, 0, 1, 1, 0
   286,  1, 1,    1,    1,      32.2,      20.5, 0, 0, 0, 0, 1, 1, 0
   287,  1, 1,    1,    1,      35.7,      -2.3, 0, 0, 0, 0, 1, 1, 0
   288,  1, 1,    1,    1,      36.8,      -2.8, 0, 0, 0, 0, 1, 1, 0
   289,  1, 1,    1,    1,      43.6,       9.7, 0, 0, 0, 0, 1, 1, 0
   290,  1, 1,    1,    1,       7.3,       3.7, 0, 0, 0, 0, 1, 1, 0
   291,  1, 1,    1,    1,      15.8,       0.3, 0, 0, 0, 0, 1, 1, 0
...
0 / END OF LOAD DATA, BEGIN FIXED SHUNT DATA
    14, 1, 1,       0,    30.4
   140, 1, 1,       0,      80
   152, 1, 1,       0,     7.7
   171, 1, 1,       0,      30
   197, 1, 1,       0,      15
   214, 1, 1,       0,    30.4
   262, 1, 1,       0,      80
   360, 1, 1,       0,      19
   452, 1, 1,       0,      50
   658, 1, 1,       0,      30
   673, 1, 1,       0,      10
   715, 1, 1,       0,      29
   716, 1, 1,       0,      30
   759, 1, 1,       0,      78
  1000, 1, 1,       0,     -64
  1078, 1, 1,       0,      10
  1135, 1, 1,       0,      29
  1174, 1, 1,       0,      30
  1175, 1, 1,       0,      80
  1211, 1, 1,       0,      40
  1229, 1, 1,       0,      30
  1251, 1, 1,       0,       9
  1270, 1, 1,       0,      80
  1459, 1, 1,       0,       6
  1479, 1, 1,       0,      30
  1483, 1, 1,       0,      20
  1535, 1, 1,       0,      80
  1602, 1, 1,       0,      30
  1689, 1, 1,       0,      30
  1717, 1, 1,       0,      10
  1753, 1, 1,       0,      30
  1756, 1, 1,       0,    15.4
  1777, 1, 1,       0,      20
  1779, 1, 1,       0,      80
  1781, 1, 1,       0,    30.4
  1782, 1, 1,       0,      80
  1795, 1, 1,       0,      10
  1811, 1, 1,       0,      30
  1934, 1, 1,       0,     -64
  2042, 1, 1,       0,    15.4
  2305, 1, 1,       0,      15
  2423, 1, 1,       0,      29
  2468, 1, 1,       0,    30.4
  2482, 1, 1,       0,      92
  2483, 1, 1,       0,      30
  2489, 1, 1,       0,      30
  2548, 1, 1,       0,      60
  2594, 1, 1,       0,      30
  2721, 1, 1,       0,     640
  2768, 1, 1,       0,     -64
  2797, 1, 1,       0,      80
  2809, 1, 1,       0,      89
  2898, 1, 1,       0,      10
  2971, 1, 1,       0,      30
  3001, 1, 1,       0,      30
  3063, 1, 1,       0,      29
  3113, 1, 1,       0,      16
  3127, 1, 1,       0,      19
  3163, 1, 1,       0,      80
  3179, 1, 1,       0,      78
  3207, 1, 1,       0,      10
  3297, 1, 1,       0,      15
  3321, 1, 1,       0,      60
  3381, 1, 1,       0,      80
  3427, 1, 1,       0,      80
  3457, 1, 1,       0,    30.7
  3484, 1, 1,       0,      30
  3539, 1, 1,       0,      80
  3555, 1, 1,       0,      30
  3559, 1, 1,       0,      15
  3619, 1, 1,       0,      30
  3623, 1, 1,       0,      20
  3664, 1, 1,       0,      31
  3665, 1, 1,       0,      40
  3678, 1, 1,       0,      30
  3736, 1, 1,       0,      30
  3873, 1, 1,       0,      30
  3880, 1, 1,       0,      30
  3881, 1, 1,       0,      80
  4004, 1, 1,       0,      34
  4008, 1, 1,       0,      30
  4141, 1, 1,       0,      48
  4142, 1, 1,       0,      80
  4208, 1, 1,       0,      80
  4242, 1, 1,       0,      34
  4250, 1, 1,       0,      20
  4255, 1, 1,       0,      20
  4310, 1, 1,       0,      30
  4416, 1, 1,       0,     -15
  4460, 1, 1,       0,      20
  4475, 1, 1,       0,    15.4
  4550, 1, 1,       0,      80
  4610, 1, 1,       0,      90
  4649, 1, 1,       0,    60.8
  4676, 1, 1,       0,      61
  4682, 1, 1,       0,      61
  4743, 1, 1,       0,      50
  4793, 1, 1,       0,      27
  4832, 1, 1,       0,      29
  4926, 1, 1,       0,      50
  5055, 1, 1,       0,      34
  6087, 1, 1,       0,     100
0 / END OF FIXED SHUNT DATA, BEGIN GENERATOR DATA
     4,  1,         0,         0,         0,         0,    1.025, 0,     100, 0, 1, 0, 0, 1, 0, 100,        12,         0, 1, 1, 0, 1, 0, 1, 0, 1, 0, 1
     4,  2,         0,         0,         0,         0,    1.025, 0,     100, 0, 1, 0, 0, 1, 0, 100,        10,         0, 1, 1, 0, 1, 0, 1, 0, 1, 0, 1
     5,  1,         0,         0,         0,         0,    1.016, 0,     100, 0, 1, 0, 0, 1, 0, 100,       9.1,         0, 1, 1, 0, 1, 0, 1, 0, 1, 0, 1
    11,  1,      0.05,         0,         0,         0,    1.014, 0,     100, 0, 1, 0, 0, 1, 1, 100,        28,         0, 1, 1, 0, 1, 0, 1, 0, 1, 0, 1
    11,  2,         0,         0,         0,         0,    1.014, 0,     100, 0, 1, 0, 0, 1, 0, 100,        18,         0, 1, 1, 0, 1, 0, 1, 0, 1, 0, 1
    17,  1,         0,         0,         0,         0,    1.045, 0,     100, 0, 1, 0, 0, 1, 0, 100,       8.2,         0, 1, 1, 0, 1, 0, 1, 0, 1, 0, 1
    19,  1,         0,         0,         0,         0,     1.02, 0,     100, 0, 1, 0, 0, 1, 0, 100,       1.2,         0, 1, 1, 0, 1, 0, 1, 0, 1, 0, 1
    22,  1,         0,         0,         0,         0,    1.007, 0,     100, 0, 1, 0, 0, 1, 0, 100,        10,         0, 1, 1, 0, 1, 0, 1, 0, 1, 0, 1
    24,  1,         0,         0,         0,         0,    1.027, 0,     100, 0, 1, 0, 0, 1, 0, 100,      16.1,         0, 1, 1, 0, 1, 0, 1, 0, 1, 0, 1
    24,  2,         0,         0,         0,         0,    1.027, 0,     100, 0, 1, 0, 0, 1, 0, 100,      35.5,         0, 1, 1, 0, 1, 0, 1, 0, 1, 0, 1
    25,  1,      0.22,         0,         0,         0,    1.064, 0,     100, 0, 1, 0, 0, 1, 1, 100,        36,         0, 1, 1, 0, 1, 0, 1, 0, 1, 0, 1
    25,  2,         0,         0,         0,         0,    1.064, 0,     100, 0, 1, 0, 0, 1, 0, 100,      27.2,         0, 1, 1, 0, 1, 0, 1, 0, 1, 0, 1
    40,  1,         0,         0,         0,         0,    1.054, 0,     100, 0, 1, 0, 0, 1, 0, 100,         8,         0, 1, 1, 0, 1, 0, 1, 0, 1, 0, 1
    47,  1,      8.56,       -10,       9.5,       -10,    1.022, 0,     100, 0, 1, 0, 0, 1, 1, 100,        16,         0, 1, 1, 0, 1, 0, 1, 0, 1, 0, 1
    47,  2,      8.56,       -10,       9.5,       -10,    1.022, 0,     100, 0, 1, 0, 0, 1, 1, 100,        16,         0, 1, 1, 0, 1, 0, 1, 0, 1, 0, 1
    48,  1,         0,         0,         0,         0,    1.017, 0,     100, 0, 1, 0, 0, 1, 0, 100,        23,         0, 1, 1, 0, 1, 0, 1, 0, 1, 0, 1
    48,  2,         0,         0,         0,         0,    1.017, 0,     100, 0, 1, 0, 0, 1, 0, 100,        24,         0, 1, 1, 0, 1, 0, 1, 0, 1, 0, 1
    57,  1,      4.74,         1,         1,       0.9,    1.058, 0,     100, 0, 1, 0, 0, 1, 1, 100,        13,         0, 1, 1, 0, 1, 0, 1, 0, 1, 0, 1
    64,  1,         0,         0,         0,         0,    1.056, 0,     100, 0, 1, 0, 0, 1, 0, 100,        24,         0, 1, 1, 0, 1, 0, 1, 0, 1, 0, 1
    64,  2,         0,         0,         0,         0,    1.056, 0,     100, 0, 1, 0, 0, 1, 0, 100,      27.6,         0, 1, 1, 0, 1, 0, 1, 0, 1, 0, 1
    69,  1,         0,         0,         0,         0,    1.045, 0,     100, 0, 1, 0, 0, 1, 0, 100,     30.04,         0, 1, 1, 0, 1, 0, 1, 0, 1, 0, 1
    70,  1,         0,         0,         0,         0,    1.026, 0,     100, 0, 1, 0, 0, 1, 0, 100,        23,         0, 1, 1, 0, 1, 0, 1, 0, 1, 0, 1
    85,  1,         0,         0,         0,         0,    1.042, 0,     100, 0, 1, 0, 0, 1, 0, 100,      6.68,         0, 1, 1, 0, 1, 0, 1, 0, 1, 0, 1
    86,  1,         0,         0,         0,         0,    1.019, 0,     100, 0, 1, 0, 0, 1, 0, 100,       9.2,         0, 1, 1, 0, 1, 0, 1, 0, 1, 0, 1
   102,  1,     17.16,     -7.63,        21,        -9,    1.033, 0,     100, 0, 1, 0, 0, 1, 1, 100,        46,         0, 1, 1, 0, 1, 0, 1, 0, 1, 0, 1
   122,  1,      6.17,      2.04,         5,        -2,    1.026, 0,     100, 0, 1, 0, 0, 1, 1, 100,        12,         0, 1, 1, 0, 1, 0, 1, 0, 1, 0, 1
   124,  1,         0,         0,         0,         0,    1.032, 0,     100, 0, 1, 0, 0, 1, 0, 100,         9,         0, 1, 1, 0, 1, 0, 1, 0, 1, 0, 1
   125,  1,      5.16,         0,         0,         0,    1.026, 0,     100, 0, 1, 0, 0, 1, 1, 100,        26,         0, 1, 1, 0, 1, 0, 1, 0, 1, 0, 1
   125,  2,      1.16,         0,         0,         0,    1.026, 0,     100, 0, 1, 0, 0, 1, 1, 100,        12,         0, 1, 1, 0, 1, 0, 1, 0, 1, 0, 1
   132,  1,      12.3,       0.8,         3,        -3,    1.061, 0,     100, 0, 1, 0, 0, 1, 1, 100,        17,         0, 1, 1, 0, 1, 0, 1, 0, 1, 0, 1
   132,  2,         0,       0.8,         1,        -1,    1.061, 0,     100, 0, 1, 0, 0, 1, 0, 100,         4,         0, 1, 1, 0, 1, 0, 1, 0, 1, 0, 1
   132,  3,         0,       0.8,         3,        -3,    1.061, 0,     100, 0, 1, 0, 0, 1, 0, 100,        14,         0, 1, 1, 0, 1, 0, 1, 0, 1, 0, 1
   132,  4,         0,       0.8,         3,        -3,    1.061, 0,     100, 0, 1, 0, 0, 1, 0, 100,        14,         0, 1, 1, 0, 1, 0, 1, 0, 1, 0, 1
   137,  1,         0,      -0.2,       0.8,      -0.8,    1.021, 0,     100, 0, 1, 0, 0, 1, 0, 100,        18,         0, 1, 1, 0, 1, 0, 1, 0, 1, 0, 1
   137,  2,      7.21,      -0.8,       0.8,      -0.8,    1.021, 0,     100, 0, 1, 0, 0, 1, 1, 100,        18,         0, 1, 1, 0, 1, 0, 1, 0, 1, 0, 1
   155,  1,         0,      0.47,      1.76,     -1.76,    1.035, 0,     100, 0, 1, 0, 0, 1, 0, 100,       5.3,         0, 1, 1, 0, 1, 0, 1, 0, 1, 0, 1
   158,  1,      8.29,      2.26,        10,       -13,    0.959, 0,     100, 0, 1, 0, 0, 1, 1, 100,      17.9,         0, 1, 1, 0, 1, 0, 1, 0, 1, 0, 1
   158,  2,      8.29,      2.26,        10,       -13,    0.959, 0,     100, 0, 1, 0, 0, 1, 1, 100,      17.9,         0, 1, 1, 0, 1, 0, 1, 0, 1, 0, 1
   176,  1,         0,      0.78,        10,        -4,      1.1, 0,     100, 0, 1, 0, 0, 1, 0, 100,        30,         0, 1, 1, 0, 1, 0, 1, 0, 1, 0, 1
   187,  1,         0,      1.92,         8,        -8,    1.075, 0,     100, 0, 1, 0, 0, 1, 0, 100,        11,         0, 1, 1, 0, 1, 0, 1, 0, 1, 0, 1
   187,  2,         0,      1.91,         2,        -2,    1.075, 0,     100, 0, 1, 0, 0, 1, 0, 100,        11,         0, 1, 1, 0, 1, 0, 1, 0, 1, 0, 1
   190,  1,         0,     -0.37,        14,       -14,    0.951, 0,     100, 0, 1, 0, 0, 1, 0, 100,        30,         0, 1, 1, 0, 1, 0, 1, 0, 1, 0, 1
   192,  1,      9.17,         0,         0,         0,    1.058, 0,     100, 0, 1, 0, 0, 1, 1, 100,      23.5,         0, 1, 1, 0, 1, 0, 1, 0, 1, 0, 1
   194,  1,      0.42,         1,         1,       0.9,    1.056, 0,     100, 0, 1, 0, 0, 1, 1, 100,        15,         0, 1, 1, 0, 1, 0, 1, 0, 1, 0, 1
   194,  2,      0.42,         1,         1,       0.9,    1.056, 0,     100, 0, 1, 0, 0, 1, 1, 100,        15,         0, 1, 1, 0, 1, 0, 1, 0, 1, 0, 1
   217,  1,         0,         0,         0,         0,    1.009, 0,     100, 0, 1, 0, 0, 1, 0, 100,     11.94,         0, 1, 1, 0, 1, 0, 1, 0, 1, 0, 1
   224,  1,         0,      0.79,         2,         0,    1.099, 0,     100, 0, 1, 0, 0, 1, 0, 100,         6,         0, 1, 1, 0, 1, 0, 1, 0, 1, 0, 1
   227,  1,         0,         0,         0,         0,    1.012, 0,     100, 0, 1, 0, 0, 1, 0, 100,       7.5,         0, 1, 1, 0, 1, 0, 1, 0, 1, 0, 1
   236,  1,         0,         0,         0,         0,    1.033, 0,     100, 0, 1, 0, 0, 1, 0, 100,      33.5,         0, 1, 1, 0, 1, 0, 1, 0, 1, 0, 1
   236,  2,         0,         0,         0,         0,    1.033, 0,     100, 0, 1, 0, 0, 1, 0, 100,      24.3,         0, 1, 1, 0, 1, 0, 1, 0, 1, 0, 1
   238,  1,         0,         0,         0,         0,    1.033, 0,     100, 0, 1, 0, 0, 1, 0, 100,         8,         0, 1, 1, 0, 1, 0, 1, 0, 1, 0, 1
   238,  2,      1.01,         0,         0,         0,    1.033, 0,     100, 0, 1, 0, 0, 1, 1, 100,        36,         0, 1, 1, 0, 1, 0, 1, 0, 1, 0, 1
   246,  1,         0,         0,         2,         0,     1.02, 0,     100, 0, 1, 0, 0, 1, 0, 100,         1,         0, 1, 1, 0, 1, 0, 1, 0, 1, 0, 1
   246,  2,         0,     -0.31,        10,       -10,     1.02, 0,     100, 0, 1, 0, 0, 1, 0, 100,        31,         0, 1, 1, 0, 1, 0, 1, 0, 1, 0, 1
   246,  3,         0,     -0.31,        10,       -10,     1.02, 0,     100, 0, 1, 0, 0, 1, 0, 100,        31,         0, 1, 1, 0, 1, 0, 1, 0, 1, 0, 1
   246,  4,         0,     -0.31,        10,       -10,     1.02, 0,     100, 0, 1, 0, 0, 1, 0, 100,        31,         0, 1, 1, 0, 1, 0, 1, 0, 1, 0, 1
   256,  1,      7.15,      -5.7,        10,       -10,    1.047, 0,     100, 0, 1, 0, 0, 1, 1, 100,        26,         0, 1, 1, 0, 1, 0, 1, 0, 1, 0, 1
   256,  2,     12.15,      -5.7,        10,       -10,    1.047, 0,     100, 0, 1, 0, 0, 1, 1, 100,        26,         0, 1, 1, 0, 1, 0, 1, 0, 1, 0, 1
   258,  1,     25.37,       0.9,         1,       0.9,    1.078, 0,     100, 0, 1, 0, 0, 1, 1, 100,        30,         0, 1, 1, 0, 1, 0, 1, 0, 1, 0, 1
   261,  1,         0,      1.78,         4,        -4,    1.049, 0,     100, 0, 1, 0, 0, 1, 0, 100,         8,         0, 1, 1, 0, 1, 0, 1, 0, 1, 0, 1
   269,  1,         0,         0,         0,         0,    1.006, 0,     100, 0, 1, 0, 0, 1, 0, 100,      12.6,         0, 1, 1, 0, 1, 0, 1, 0, 1, 0, 1
   282,  1,         0,     -0.32,       6.1,      -6.2,     1.02, 0,     100, 0, 1, 0, 0, 1, 0, 100,      11.6,         0, 1, 1, 0, 1, 0, 1, 0, 1, 0, 1
   295,  1,         0,         0,         0,         0,    1.044, 0,     100, 0, 1, 0, 0, 1, 0, 100,      25.3,         0, 1, 1, 0, 1, 0, 1, 0, 1, 0, 1
   296,  1,      3.05,         0,         0,         0,    1.008, 0,     100, 0, 1, 0, 0, 1, 1, 100,        12,         0, 1, 1, 0, 1, 0, 1, 0, 1, 0, 1
   305,  1,         0,     -6.56,         9,        -9,    1.042, 0,     100, 0, 1, 0, 0, 1, 0, 100,        15,         0, 1, 1, 0, 1, 0, 1, 0, 1, 0, 1
   312,  1,       4.2,         0,         0,         0,    1.011, 0,     100, 0, 1, 0, 0, 1, 1, 100,      25.8,         0, 1, 1, 0, 1, 0, 1, 0, 1, 0, 1
   312,  2,      15.2,         0,         0,         0,    1.011, 0,     100, 0, 1, 0, 0, 1, 1, 100,      49.6,         0, 1, 1, 0, 1, 0, 1, 0, 1, 0, 1
   319,  1,         0,       0.1,       0.1,      -0.1,    1.038, 0,     100, 0, 1, 0, 0, 1, 0, 100,      10.8,         0, 1, 1, 0, 1, 0, 1, 0, 1, 0, 1
   325,  2,         0,     -0.29,         4,        -4,     1.03, 0,     100, 0, 1, 0, 0, 1, 0, 100,        11,         0, 1, 1, 0, 1, 0, 1, 0, 1, 0, 1
   332,  1,         0,      1.22,        13,        -9,    1.038, 0,     100, 0, 1, 0, 0, 1, 0, 100,        25,         0, 1, 1, 0, 1, 0, 1, 0, 1, 0, 1
   333,  1,         0,      4.72,        13,        -9,    1.048, 0,     100, 0, 1, 0, 0, 1, 0, 100,        25,         0, 1, 1, 0, 1, 0, 1, 0, 1, 0, 1
   336,  1,       6.4,      0.12,         5,        -6,    1.023, 0,     100, 0, 1, 0, 0, 1, 1, 100,        13,         0, 1, 1, 0, 1, 0, 1, 0, 1, 0, 1
   338,  1,         0,      1.74,        10,       -10,    1.076, 0,     100, 0, 1, 0, 0, 1, 0, 100,        21,         0, 1, 1, 0, 1, 0, 1, 0, 1, 0, 1
   338,  2,         0,       0.1,       0.1,      -0.1,    1.076, 0,     100, 0, 1, 0, 0, 1, 0, 100,         2,         0, 1, 1, 0, 1, 0, 1, 0, 1, 0, 1
   345,  1,         0,         0,         0,         0,    1.027, 0,     100, 0, 1, 0, 0, 1, 0, 100,       2.3,         0, 1, 1, 0, 1, 0, 1, 0, 1, 0, 1
   345,  2,         0,         0,         0,         0,    1.027, 0,     100, 0, 1, 0, 0, 1, 0, 100,      19.5,         0, 1, 1, 0, 1, 0, 1, 0, 1, 0, 1
   348,  1,         0,         0,         0,         0,    1.047, 0,     100, 0, 1, 0, 0, 1, 0, 100,        22,         0, 1, 1, 0, 1, 0, 1, 0, 1, 0, 1
   357,  2,         0,         0,         0,         0,    0.996, 0,     100, 0, 1, 0, 0, 1, 0, 100,        12,         0, 1, 1, 0, 1, 0, 1, 0, 1, 0, 1
   357,  1,         0,         0,         0,         0,    0.996, 0,     100, 0, 1, 0, 0, 1, 0, 100,        12,         0, 1, 1, 0, 1, 0, 1, 0, 1, 0, 1
   364,  1,    125.15,     17.47,        59,       -26,    1.035, 0,     100, 0, 1, 0, 0, 1, 1, 100,       130,         0, 1, 1, 0, 1, 0, 1, 0, 1, 0, 1
   391,  2,         0,         0,         0,         0,     1.03, 0,     100, 0, 1, 0, 0, 1, 0, 100,       2.7,         0, 1, 1, 0, 1, 0, 1, 0, 1, 0, 1
   409,  1,         0,      1.09,         5,        -5,    1.034, 0,     100, 0, 1, 0, 0, 1, 0, 100,        18,         0, 1, 1, 0, 1, 0, 1, 0, 1, 0, 1
   411,  1,         0,         0,         0,         0,    1.027, 0,     100, 0, 1, 0, 0, 1, 0, 100,        10,         0, 1, 1, 0, 1, 0, 1, 0, 1, 0, 1
   411,  2,         0,         0,         0,         0,    1.027, 0,     100, 0, 1, 0, 0, 1, 0, 100,      11.5,         0, 1, 1, 0, 1, 0, 1, 0, 1, 0, 1
   431,  1,         0,         0,         0,         0,    1.049, 0,     100, 0, 1, 0, 0, 1, 0, 100,        12,         0, 1, 1, 0, 1, 0, 1, 0, 1, 0, 1
   440,  2,         0,      1.25,     10.96,    -11.99,    1.023, 0,     100, 0, 1, 0, 0, 1, 0, 100,     34.25,         0, 1, 1, 0, 1, 0, 1, 0, 1, 0, 1
   447,  1,      18.4,      0.79,         8,        -9,    0.997, 0,     100, 0, 1, 0, 0, 1, 1, 100,        25,         0, 1, 1, 0, 1, 0, 1, 0, 1, 0, 1
   462,  1,         0,         0,         0,         0,    1.046, 0,     100, 0, 1, 0, 0, 1, 0, 100,       2.4,         0, 1, 1, 0, 1, 0, 1, 0, 1, 0, 1
   462,  2,         0,         0,         0,         0,    1.046, 0,     100, 0, 1, 0, 0, 1, 0, 100,        16,         0, 1, 1, 0, 1, 0, 1, 0, 1, 0, 1
   464,  1,      3.68,      2.64,         6,        -3,    1.176, 0,     100, 0, 1, 0, 0, 1, 1, 100,        27,         1, 1, 1, 0, 1, 0, 1, 0, 1, 0, 1
   464,  2,      3.68,      2.64,         6,        -3,    1.176, 0,     100, 0, 1, 0, 0, 1, 1, 100,        27,         1, 1, 1, 0, 1, 0, 1, 0, 1, 0, 1
   466,  1,         0,         0,        19,       -10,    1.035, 0,     100, 0, 1, 0, 0, 1, 0, 100,        48,         1, 1, 1, 0, 1, 0, 1, 0, 1, 0, 1
   470,  2,         0,     -0.68,         6,        -6,    1.045, 0,     100, 0, 1, 0, 0, 1, 0, 100,        10,         0, 1, 1, 0, 1, 0, 1, 0, 1, 0, 1
   470,  1,         0,     -2.11,       5.4,      -5.4,    1.045, 0,     100, 0, 1, 0, 0, 1, 0, 100,         9,         0, 1, 1, 0, 1, 0, 1, 0, 1, 0, 1
   479,  1,         0,     -0.24,        17,       -16,    1.022, 0,     100, 0, 1, 0, 0, 1, 0, 100,        27,         0, 1, 1, 0, 1, 0, 1, 0, 1, 0, 1
   479,  2,         0,     -0.24,        17,       -16,    1.022, 0,     100, 0, 1, 0, 0, 1, 0, 100,        27,         0, 1, 1, 0, 1, 0, 1, 0, 1, 0, 1
   479,  3,         0,     -0.24,        17,       -16,    1.022, 0,     100, 0, 1, 0, 0, 1, 0, 100,        27,         0, 1, 1, 0, 1, 0, 1, 0, 1, 0, 1
   491,  2,         0,        -2,         8,       -17,    1.054, 0,     100, 0, 1, 0, 0, 1, 0, 100,      23.4,         0, 1, 1, 0, 1, 0, 1, 0, 1, 0, 1
   508,  3,         0,      1.77,         2,        -2,    1.027, 0,     100, 0, 1, 0, 0, 1, 0, 100,         4,         0, 1, 1, 0, 1, 0, 1, 0, 1, 0, 1
   519,  1,         0,         0,         0,         0,    0.999, 0,     100, 0, 1, 0, 0, 1, 0, 100,        10,         0, 1, 1, 0, 1, 0, 1, 0, 1, 0, 1
   520,  1,         0,         0,         0,         0,    1.025, 0,     100, 0, 1, 0, 0, 1, 0, 100,        12,         0, 1, 1, 0, 1, 0, 1, 0, 1, 0, 1
   530,  1,      1.92,     -0.04,       4.8,      -4.8,    1.039, 0,     100, 0, 1, 0, 0, 1, 1, 100,         8,         0, 1, 1, 0, 1, 0, 1, 0, 1, 0, 1
   530,  2,      1.92,     -0.04,       4.8,      -4.8,    1.039, 0,     100, 0, 1, 0, 0, 1, 1, 100,         8,         0, 1, 1, 0, 1, 0, 1, 0, 1, 0, 1
   530,  3,      1.92,     -0.04,       4.8,      -4.8,    1.039, 0,     100, 0, 1, 0, 0, 1, 1, 100,         8,         0, 1, 1, 0, 1, 0, 1, 0, 1, 0, 1
   537,  2,         0,         0,         0,         0,    1.028, 0,     100, 0, 1, 0, 0, 1, 0, 100,        12,         0, 1, 1, 0, 1, 0, 1, 0, 1, 0, 1
   537,  3,      1.93,         0,         0,         0,    1.028, 0,     100, 0, 1, 0, 0, 1, 1, 100,        24,         0, 1, 1, 0, 1, 0, 1, 0, 1, 0, 1
   546,  1,         0,         2,         2,       1.9,    1.025, 0,     100, 0, 1, 0, 0, 1, 1, 100,         9,         0, 1, 1, 0, 1, 0, 1, 0, 1, 0, 1
   548,  2,         0,      1.04,         2,         0,     1.04, 0,     100, 0, 1, 0, 0, 1, 0, 100,        12,         0, 1, 1, 0, 1, 0, 1, 0, 1, 0, 1
   570,  1,         0,         0,         0,         0,    0.997, 0,     100, 0, 1, 0, 0, 1, 0, 100,        12,         0, 1, 1, 0, 1, 0, 1, 0, 1, 0, 1
   570,  2,         0,         0,         0,         0,    0.997, 0,     100, 0, 1, 0, 0, 1, 0, 100,        30,         0, 1, 1, 0, 1, 0, 1, 0, 1, 0, 1
   570,  3,         0,         0,         0,         0,    0.997, 0,     100, 0, 1, 0, 0, 1, 0, 100,      11.5,         0, 1, 1, 0, 1, 0, 1, 0, 1, 0, 1
   583,  2,      2.96,      5.22,         7,        -4,    1.009, 0,     100, 0, 1, 0, 0, 1, 1, 100,        16,         0, 1, 1, 0, 1, 0, 1, 0, 1, 0, 1
   585,  3,         0,         0,         0,         0,    0.986, 0,     100, 0, 1, 0, 0, 1, 0, 100,         9,         0, 1, 1, 0, 1, 0, 1, 0, 1, 0, 1
   586,  1,         0,      4.82,       5.7,      -5.7,    1.025, 0,     100, 0, 1, 0, 0, 1, 0, 100,       9.5,         0, 1, 1, 0, 1, 0, 1, 0, 1, 0, 1
   589,  1,         0,       0.1,       0.1,      -0.1,    1.018, 0,     100, 0, 1, 0, 0, 1, 0, 100,         1,         0, 1, 1, 0, 1, 0, 1, 0, 1, 0, 1
   593,  1,         0,      1.09,        10,       -10,     1.03, 0,     100, 0, 1, 0, 0, 1, 0, 100,        21,         0, 1, 1, 0, 1, 0, 1, 0, 1, 0, 1
   600,  1,         0,      0.79,         1,        -1,     1.03, 0,     100, 0, 1, 0, 0, 1, 0, 100,       6.1,         0, 1, 1, 0, 1, 0, 1, 0, 1, 0, 1
   610,  1,     39.05,     -6.42,        45,       -45,    1.021, 0,     100, 0, 1, 0, 0, 1, 1, 100,        45,         0, 1, 1, 0, 1, 0, 1, 0, 1, 0, 1
   610,  2,         0,     -0.45,        45,       -45,    1.021, 0,     100, 0, 1, 0, 0, 1, 0, 100,        45,         0, 1, 1, 0, 1, 0, 1, 0, 1, 0, 1
   612,  1,         0,         0,         0,         0,        1, 0,     100, 0, 1, 0, 0, 1, 0, 100,        12,         0, 1, 1, 0, 1, 0, 1, 0, 1, 0, 1
   612,  2,         0,         0,         0,         0,        1, 0,     100, 0, 1, 0, 0, 1, 0, 100,        12,         0, 1, 1, 0, 1, 0, 1, 0, 1, 0, 1
   612,  3,         0,         0,         0,         0,        1, 0,     100, 0, 1, 0, 0, 1, 0, 100,        12,         0, 1, 1, 0, 1, 0, 1, 0, 1, 0, 1
   613,  2,         0,         0,         0,         0,    0.994, 0,     100, 0, 1, 0, 0, 1, 0, 100,        35,         0, 1, 1, 0, 1, 0, 1, 0, 1, 0, 1
   613,  3,         0,         0,         0,         0,    0.994, 0,     100, 0, 1, 0, 0, 1, 0, 100,      11.5,         0, 1, 1, 0, 1, 0, 1, 0, 1, 0, 1
   624,  1,     -4.11,      -8.3,       8.3,      -8.3,    1.047, 0,     100, 0, 1, 0, 0, 1, 1, 100,       8.3,      -8.3, 1, 1, 0, 1, 0, 1, 0, 1, 0, 1
   633,  2,         0,     -2.55,         4,        -4,    1.028, 0,     100, 0, 1, 0, 0, 1, 0, 100,       7.3,         0, 1, 1, 0, 1, 0, 1, 0, 1, 0, 1
   636,  1,         0,      0.25,         7,         0,    0.999, 0,     100, 0, 1, 0, 0, 1, 0, 100,        15,         0, 1, 1, 0, 1, 0, 1, 0, 1, 0, 1
   636,  2,         1,      4.25,         7,         0,    0.999, 0,     100, 0, 1, 0, 0, 1, 1, 100,        15,         0, 1, 1, 0, 1, 0, 1, 0, 1, 0, 1
   646,  1,    197.89,      5.02,        80,       -75,    1.104, 0,     100, 0, 1, 0, 0, 1, 1, 100,       239,         0, 1, 1, 0, 1, 0, 1, 0, 1, 0, 1
   657,  2,         0,      0.51,         7,         0,    1.065, 0,     100, 0, 1, 0, 0, 1, 0, 100,         7,         0, 1, 1, 0, 1, 0, 1, 0, 1, 0, 1
...